1
R1 1 0 10.0
V1 1 0 DC 1.0
C1 1 0 0.001
.TRAN 1.0 0.0001 BE 0 UIC
